Circuit: * D:\_projects\skoda100\git\Skoda100RC\obvody\horn.asc

Direct Newton iteration for .op point succeeded.

Date: Tue Nov 06 01:31:57 2018
Total elapsed time: 0.537 seconds.

tnom = 27
temp = 27
method = modified trap
totiter = 60600
traniter = 60584
tranpoints = 20765
accept = 16256
rejected = 4509
matrix size = 30
fillins = 10
solver = Normal
Matrix Compiler1: 1.71 KB object code size  0.8/0.5/[0.2]
Matrix Compiler2: off  [0.4]/0.8/0.8

